egret/models/tests/pglib_opf_case3_lmbd_fdf_simplified_0910.json
{"elements": {"bus": {"1": {"matpower_bustype": "ref", "area": 1.0, "vm": 1.0999999904386888, "va": -4.756772262359144e-17, "base_kv": 240.0, "zone": 1.0, "v_min": 0.9, "v_max": 1.1, "lmp": 30.5075690565633, "qlmp": 0.0, "pl": 100.10000000000004, "ql": 36.4, "ploss_sens": 0.0, "qloss_sens": -1.0, "vdf": {"1": 0.10435047554780386, "2": 0.5537237375869498, "3": 0.538210035060479}, "vdf_c": 0.5499999999999998}, "2": {"matpower_bustype": "PV", "area": 1.0, "vm": 0.9000000014380598, "va": 0.22294043696367022, "base_kv": 240.0, "zone": 1.0, "v_min": 0.9, "v_max": 1.1, "lmp": 30.652610444057704, "qlmp": 0.0, "pl": 100.10000000000004, "ql": 36.4, "ploss_sens": 0.004754275479160084, "qloss_sens": -0.9999999999999999, "vdf": {"1": 0.46090805559895476, "2": 0.2667474031079315, "3": 0.7305941105484679}, "vdf_c": 0.46308526842120357}, "3": {"matpower_bustype": "PV", "area": 1.0, "vm": 0.9000000006025545, "va": -0.2275068214293512, "base_kv": 240.0, "zone": 1.0, "v_min": 0.9, "v_max": 1.1, "lmp": 32.17232821107855, "qlmp": 0.0, "pl": 86.45, "ql": 45.5, "ploss_sens": 0.05456872527039637, "qloss_sens": -1.0, "vdf": {"1": 0.4201262590394744, "2": 0.6771849193318586, "3": 0.33065672140582814}, "vdf_c": 0.44999999999999984}}, "load": {"load_1": {"in_service": true, "p_load": 100.10000000000004, "q_load": 36.4, "bus": "1"}, "load_2": {"in_service": true, "p_load": 100.10000000000004, "q_load": 36.4, "bus": "2"}, "load_3": {"in_service": true, "p_load": 86.45, "q_load": 45.5, "bus": "3"}}, "generator": {"1": {"bus": "1", "pg": 115.94349571165921, "qg": 54.24453424547888, "vg": 1.0, "mbase": 100.0, "in_service": true, "p_min": 0.0, "p_max": 2000.0, "q_min": -1000.0, "q_max": 1000.0, "generator_type": "thermal", "p_cost": {"data_type": "cost_curve", "cost_curve_type": "polynomial", "values": {"0": 0.0, "1": 5.0, "2": 0.11}}, "startup_cost": 0.0, "shutdown_cost": 0.0}, "2": {"bus": "2", "pg": 173.2506496709344, "qg": -15.716036608702488, "vg": 1.0, "mbase": 100.0, "in_service": true, "p_min": 0.0, "p_max": 2000.0, "q_min": -1000.0, "q_max": 1000.0, "generator_type": "thermal", "p_cost": {"data_type": "cost_curve", "cost_curve_type": "polynomial", "values": {"0": 0.0, "1": 1.2, "2": 0.08500000000000002}}, "startup_cost": 0.0, "shutdown_cost": 0.0}, "3": {"bus": "3", "pg": 0.0, "qg": -6.532099505498401, "vg": 1.0, "mbase": 100.0, "in_service": true, "p_min": 0.0, "p_max": 0.0, "q_min": -1000.0, "q_max": 1000.0, "generator_type": "thermal", "p_cost": {"data_type": "cost_curve", "cost_curve_type": "polynomial", "values": {"0": 0.0, "1": 0.0, "2": 0.0}}, "startup_cost": 0.0, "shutdown_cost": 0.0}}, "branch": {"1": {"from_bus": "1", "to_bus": "3", "resistance": 0.065, "reactance": 0.62, "charging_susceptance": 0.45, "branch_type": "line", "rating_long_term": 9000.0, "rating_short_term": 9000.0, "rating_emergency": 9000.0, "in_service": true, "angle_diff_min": -30.0, "angle_diff_max": 30.0, "pf": 39.08640614632307, "qf": 22.49239794979378, "pt": -49.14556828305927, "qt": -34.90846563423724, "pfl": 2.1615509021586377, "qfl": -24.832129597927683, "pf_dual": 3757.4719464922764, "qf_dual": 6.359756182730438e-09, "ptdf": {"1": 0.0, "2": 0.352002257978692, "3": 0.7617654171830306}, "ptdf_c": -0.010190203123727731, "qtdf": {"1": -0.38846243213173975, "2": -0.06223025023437102, "3": 0.3613857782912081}, "qtdf_c": -2.7755575615628914e-17}, "2": {"from_bus": "3", "to_bus": "2", "resistance": 0.025, "reactance": 0.75, "charging_susceptance": 0.7, "branch_type": "line", "rating_long_term": 50.0, "rating_short_term": 50.0, "rating_emergency": 50.0, "in_service": true, "angle_diff_min": -30.0, "angle_diff_max": 30.0, "pf": -48.45114773473534, "qf": 1.5263426867680159, "pt": 46.52525119736147, "qt": -18.313959121065228, "pfl": 0.6708194804207424, "qfl": -38.248130252379774, "pf_dual": 4136.503354328547, "qf_dual": -181.34405376142612, "ptdf": {"1": 0.0, "2": 0.3457905145289684, "3": -0.2671213544280701}, "ptdf_c": -0.0006370585658797383, "qtdf": {"1": -0.03306564448023224, "2": 0.37181875822854654, "3": -0.3544238754425196}, "qtdf_c": 1.214306433183765e-17}, "3": {"from_bus": "1", "to_bus": "2", "resistance": 0.042, "reactance": 0.9, "charging_susceptance": 0.3, "branch_type": "line", "rating_long_term": 9000.0, "rating_short_term": 9000.0, "rating_emergency": 9000.0, "in_service": true, "angle_diff_min": -30.0, "angle_diff_max": 30.0, "pf": -24.145180966268427, "qf": 19.853958353786368, "pt": 13.481042093852826, "qt": -30.47717586747673, "pfl": 0.24082958333825621, "qfl": -25.856244084926338, "pf_dual": 3757.471946492103, "qf_dual": 6.344517840074416e-09, "ptdf": {"1": 0.0, "2": 0.64511571874178, "3": 0.2695816196885998}, "ptdf_c": -0.0025987804945490356, "qtdf": {"1": -0.29525716806681673, "2": 0.3523597719786906, "3": -0.07261600252131462}, "qtdf_c": 8.326672684688674e-17}}}, "system": {"model_name": "pglib_opf_case3_lmbd", "mpc_version": "'2'", "baseMVA": 100.0, "reference_bus": "1", "reference_bus_angle": 0.0, "total_cost": 4817.687633993332, "ploss": 2.544145382593526, "qloss": -86.30360186872201, "ploss_const": -0.01825542577017088, "qloss_const": 1.1102230246251565e-16, "mult": 0.91}, "results": {"time": 0.010053157806396484, "#_cons": 13, "#_vars": 35, "#_nz": 36, "termination": "optimal"}}